# generated using pymatgen
data_TiMn2O4
_symmetry_space_group_name_H-M   'P 1'
_cell_length_a   6.17000000
_cell_length_b   6.17000000
_cell_length_c   8.56400000
_cell_angle_alpha   90.00000000
_cell_angle_beta   90.00000000
_cell_angle_gamma   90.00000000
_symmetry_Int_Tables_number   1
_chemical_formula_structural   TiMn2O4
_chemical_formula_sum   'Ti4 Mn8 O16'
_cell_volume   326.02205960
_cell_formula_units_Z   4
loop_
 _symmetry_equiv_pos_site_id
 _symmetry_equiv_pos_as_xyz
  1  'x, y, z'
loop_
 _atom_type_symbol
 _atom_type_oxidation_number
  Ti4+  4.0
  Mn2+  2.0
  O2-  -2.0
loop_
 _atom_site_type_symbol
 _atom_site_label
 _atom_site_symmetry_multiplicity
 _atom_site_fract_x
 _atom_site_fract_y
 _atom_site_fract_z
 _atom_site_occupancy
  Ti4+  Ti0  1  0.75300000  0.50000000  0.75000000  1.0
  Ti4+  Ti1  1  0.24700000  0.50000000  0.25000000  1.0
  Ti4+  Ti2  1  0.50000000  0.75300000  0.50000000  1.0
  Ti4+  Ti3  1  0.50000000  0.24700000  0.00000000  1.0
  Mn2+  Mn4  1  0.75800000  0.00000000  0.75000000  1.0
  Mn2+  Mn5  1  0.24200000  0.00000000  0.25000000  1.0
  Mn2+  Mn6  1  0.00000000  0.75800000  0.50000000  1.0
  Mn2+  Mn7  1  0.00000000  0.24200000  0.00000000  1.0
  Mn2+  Mn8  1  0.75900000  0.75900000  0.12500000  1.0
  Mn2+  Mn9  1  0.24100000  0.24100000  0.62500000  1.0
  Mn2+  Mn10  1  0.24100000  0.75900000  0.87500000  1.0
  Mn2+  Mn11  1  0.75900000  0.24100000  0.37500000  1.0
  O2-  O12  1  0.98900000  0.72800000  0.74100000  1.0
  O2-  O13  1  0.01100000  0.27200000  0.24100000  1.0
  O2-  O14  1  0.27200000  0.98900000  0.49100000  1.0
  O2-  O15  1  0.72800000  0.01100000  0.99100000  1.0
  O2-  O16  1  0.01100000  0.72800000  0.25900000  1.0
  O2-  O17  1  0.98900000  0.27200000  0.75900000  1.0
  O2-  O18  1  0.72800000  0.98900000  0.50900000  1.0
  O2-  O19  1  0.27200000  0.01100000  0.00900000  1.0
  O2-  O20  1  0.47900000  0.70800000  0.73500000  1.0
  O2-  O21  1  0.52100000  0.29200000  0.23500000  1.0
  O2-  O22  1  0.29200000  0.47900000  0.48500000  1.0
  O2-  O23  1  0.70800000  0.52100000  0.98500000  1.0
  O2-  O24  1  0.52100000  0.70800000  0.26500000  1.0
  O2-  O25  1  0.47900000  0.29200000  0.76500000  1.0
  O2-  O26  1  0.70800000  0.47900000  0.51500000  1.0
  O2-  O27  1  0.29200000  0.52100000  0.01500000  1.0
